CM C:\Documents and Settings\me\D
CE
GW 1 8 0.0 0.0 0.49 0.0 0.0 0.96 0.001
GW 2 8 0.0 0.0 0.02 0.0 0.0 0.49 0.001
GE 1
FR 0 1 0 0 100.0000
GN 1
EX 0 1 1 0 1.0 0.0
RP 0 1 361 1000 90.0 0.0 0.0 1.0 0.0
EN
