CM C:\Documents and Settings\me\D
CE
GW 1 1 -0.6096 0.6096 0.0 -0.508 0.6096 0.0 0.0161701
GW 2 1 -0.508 0.6096 0.0 -0.4064 0.6096 0.0 0.0161701
GW 3 1 -0.4064 0.6096 0.0 -0.3048 0.6096 0.0 0.0161701
GW 4 1 -0.3048 0.6096 0.0 -0.2032 0.6096 0.0 0.0161701
GW 5 1 -0.2032 0.6096 0.0 -0.1016 0.6096 0.0 0.0161701
GW 6 1 -0.1016 0.6096 0.0 0.0 0.6096 0.0 0.0161701
GW 7 1 0.0 0.6096 0.0 0.1016 0.6096 0.0 0.0161701
GW 8 1 0.1016 0.6096 0.0 0.2032 0.6096 0.0 0.0161701
GW 9 1 0.2032 0.6096 0.0 0.3047999 0.6096 0.0 0.0161701
GW 10 1 0.3047999 0.6096 0.0 0.4063999 0.6096 0.0 0.0161701
GW 11 1 0.4063999 0.6096 0.0 0.508 0.6096 0.0 0.0161701
GW 12 1 0.508 0.6096 0.0 0.6095999 0.6096 0.0 0.0161701
GW 13 1 -0.6096 0.508 0.0 -0.508 0.508 0.0 0.0161701
GW 14 1 -0.508 0.508 0.0 -0.4064 0.508 0.0 0.0161701
GW 15 1 -0.4064 0.508 0.0 -0.3048 0.508 0.0 0.0161701
GW 16 1 -0.3048 0.508 0.0 -0.2032 0.508 0.0 0.0161701
GW 17 1 -0.2032 0.508 0.0 -0.1016 0.508 0.0 0.0161701
GW 18 1 -0.1016 0.508 0.0 0.0 0.508 0.0 0.0161701
GW 19 1 0.0 0.508 0.0 0.1016 0.508 0.0 0.0161701
GW 20 1 0.1016 0.508 0.0 0.2032 0.508 0.0 0.0161701
GW 21 1 0.2032 0.508 0.0 0.3047999 0.508 0.0 0.0161701
GW 22 1 0.3047999 0.508 0.0 0.4063999 0.508 0.0 0.0161701
GW 23 1 0.4063999 0.508 0.0 0.508 0.508 0.0 0.0161701
GW 24 1 0.508 0.508 0.0 0.6095999 0.508 0.0 0.0161701
GW 25 1 -0.6096 0.4064 0.0 -0.508 0.4064 0.0 0.0161701
GW 26 1 -0.508 0.4064 0.0 -0.4064 0.4064 0.0 0.0161701
GW 27 1 -0.4064 0.4064 0.0 -0.3048 0.4064 0.0 0.0161701
GW 28 1 -0.3048 0.4064 0.0 -0.2032 0.4064 0.0 0.0161701
GW 29 1 -0.2032 0.4064 0.0 -0.1016 0.4064 0.0 0.0161701
GW 30 1 -0.1016 0.4064 0.0 0.0 0.4064 0.0 0.0161701
GW 31 1 0.0 0.4064 0.0 0.1016 0.4064 0.0 0.0161701
GW 32 1 0.1016 0.4064 0.0 0.2032 0.4064 0.0 0.0161701
GW 33 1 0.2032 0.4064 0.0 0.3047999 0.4064 0.0 0.0161701
GW 34 1 0.3047999 0.4064 0.0 0.4063999 0.4064 0.0 0.0161701
GW 35 1 0.4063999 0.4064 0.0 0.508 0.4064 0.0 0.0161701
GW 36 1 0.508 0.4064 0.0 0.6095999 0.4064 0.0 0.0161701
GW 37 1 -0.6096 0.3048 0.0 -0.508 0.3048 0.0 0.0161701
GW 38 1 -0.508 0.3048 0.0 -0.4064 0.3048 0.0 0.0161701
GW 39 1 -0.4064 0.3048 0.0 -0.3048 0.3048 0.0 0.0161701
GW 40 1 -0.3048 0.3048 0.0 -0.2032 0.3048 0.0 0.0161701
GW 41 1 -0.2032 0.3048 0.0 -0.1016 0.3048 0.0 0.0161701
GW 42 1 -0.1016 0.3048 0.0 0.0 0.3048 0.0 0.0161701
GW 43 1 0.0 0.3048 0.0 0.1016 0.3048 0.0 0.0161701
GW 44 1 0.1016 0.3048 0.0 0.2032 0.3048 0.0 0.0161701
GW 45 1 0.2032 0.3048 0.0 0.3047999 0.3048 0.0 0.0161701
GW 46 1 0.3047999 0.3048 0.0 0.4063999 0.3048 0.0 0.0161701
GW 47 1 0.4063999 0.3048 0.0 0.508 0.3048 0.0 0.0161701
GW 48 1 0.508 0.3048 0.0 0.6095999 0.3048 0.0 0.0161701
GW 49 1 -0.6096 0.2032 0.0 -0.508 0.2032 0.0 0.0161701
GW 50 1 -0.508 0.2032 0.0 -0.4064 0.2032 0.0 0.0161701
GW 51 1 -0.4064 0.2032 0.0 -0.3048 0.2032 0.0 0.0161701
GW 52 1 -0.3048 0.2032 0.0 -0.2032 0.2032 0.0 0.0161701
GW 53 1 0.2032 0.2032 0.0 0.3047999 0.2032 0.0 0.0161701
GW 54 1 0.3047999 0.2032 0.0 0.4063999 0.2032 0.0 0.0161701
GW 55 1 0.4063999 0.2032 0.0 0.508 0.2032 0.0 0.0161701
GW 56 1 0.508 0.2032 0.0 0.6095999 0.2032 0.0 0.0161701
GW 57 1 -0.6096 0.1016 0.0 -0.508 0.1016 0.0 0.0161701
GW 58 1 -0.508 0.1016 0.0 -0.4064 0.1016 0.0 0.0161701
GW 59 1 -0.4064 0.1016 0.0 -0.3048 0.1016 0.0 0.0161701
GW 60 1 -0.3048 0.1016 0.0 -0.2032 0.1016 0.0 0.0161701
GW 61 1 0.2032 0.1016 0.0 0.3047999 0.1016 0.0 0.0161701
GW 62 1 0.3047999 0.1016 0.0 0.4063999 0.1016 0.0 0.0161701
GW 63 1 0.4063999 0.1016 0.0 0.508 0.1016 0.0 0.0161701
GW 64 1 0.508 0.1016 0.0 0.6095999 0.1016 0.0 0.0161701
GW 65 1 -0.6096 0.0 0.0 -0.508 0.0 0.0 0.0161701
GW 66 1 -0.508 0.0 0.0 -0.4064 0.0 0.0 0.0161701
GW 67 1 -0.4064 0.0 0.0 -0.3048 0.0 0.0 0.0161701
GW 68 1 -0.3048 0.0 0.0 -0.2032 0.0 0.0 0.0161701
GW 69 1 0.2032 0.0 0.0 0.3047999 0.0 0.0 0.0161701
GW 70 1 0.3047999 0.0 0.0 0.4063999 0.0 0.0 0.0161701
GW 71 1 0.4063999 0.0 0.0 0.508 0.0 0.0 0.0161701
GW 72 1 0.508 0.0 0.0 0.6095999 0.0 0.0 0.0161701
GW 73 1 -0.6096 -0.1016 0.0 -0.508 -0.1016 0.0 0.0161701
GW 74 1 -0.508 -0.1016 0.0 -0.4064 -0.1016 0.0 0.0161701
GW 75 1 -0.4064 -0.1016 0.0 -0.3048 -0.1016 0.0 0.0161701
GW 76 1 -0.3048 -0.1016 0.0 -0.2032 -0.1016 0.0 0.0161701
GW 77 1 0.2032 -0.1016 0.0 0.3047999 -0.1016 0.0 0.0161701
GW 78 1 0.3047999 -0.1016 0.0 0.4063999 -0.1016 0.0 0.0161701
GW 79 1 0.4063999 -0.1016 0.0 0.508 -0.1016 0.0 0.0161701
GW 80 1 0.508 -0.1016 0.0 0.6095999 -0.1016 0.0 0.0161701
GW 81 1 -0.6096 -0.2032 0.0 -0.508 -0.2032 0.0 0.0161701
GW 82 1 -0.508 -0.2032 0.0 -0.4064 -0.2032 0.0 0.0161701
GW 83 1 -0.4064 -0.2032 0.0 -0.3048 -0.2032 0.0 0.0161701
GW 84 1 -0.3048 -0.2032 0.0 -0.2032 -0.2032 0.0 0.0161701
GW 85 1 0.2032 -0.2032 0.0 0.3047999 -0.2032 0.0 0.0161701
GW 86 1 0.3047999 -0.2032 0.0 0.4063999 -0.2032 0.0 0.0161701
GW 87 1 0.4063999 -0.2032 0.0 0.508 -0.2032 0.0 0.0161701
GW 88 1 0.508 -0.2032 0.0 0.6095999 -0.2032 0.0 0.0161701
GW 89 1 -0.6096 -0.3047999 0.0 -0.508 -0.3047999 0.0 0.0161701
GW 90 1 -0.508 -0.3047999 0.0 -0.4064 -0.3047999 0.0 0.0161701
GW 91 1 -0.4064 -0.3047999 0.0 -0.3048 -0.3047999 0.0 0.0161701
GW 92 1 -0.3048 -0.3047999 0.0 -0.2032 -0.3047999 0.0 0.0161701
GW 93 1 -0.2032 -0.3047999 0.0 -0.1016 -0.3047999 0.0 0.0161701
GW 94 1 -0.1016 -0.3047999 0.0 0.0 -0.3047999 0.0 0.0161701
GW 95 1 0.0 -0.3047999 0.0 0.1016 -0.3047999 0.0 0.0161701
GW 96 1 0.1016 -0.3047999 0.0 0.2032 -0.3047999 0.0 0.0161701
GW 97 1 0.2032 -0.3047999 0.0 0.3047999 -0.3047999 0.0 0.0161701
GW 98 1 0.3047999 -0.3047999 0.0 0.4063999 -0.3047999 0.0 0.0161701
GW 99 1 0.4063999 -0.3047999 0.0 0.508 -0.3047999 0.0 0.0161701
GW 100 1 0.508 -0.3047999 0.0 0.6095999 -0.3047999 0.0 0.0161701
GW 101 1 -0.6096 -0.4063999 0.0 -0.508 -0.4063999 0.0 0.0161701
GW 102 1 -0.508 -0.4063999 0.0 -0.4064 -0.4063999 0.0 0.0161701
GW 103 1 -0.4064 -0.4063999 0.0 -0.3048 -0.4063999 0.0 0.0161701
GW 104 1 -0.3048 -0.4063999 0.0 -0.2032 -0.4063999 0.0 0.0161701
GW 105 1 -0.2032 -0.4063999 0.0 -0.1016 -0.4063999 0.0 0.0161701
GW 106 1 -0.1016 -0.4063999 0.0 0.0 -0.4063999 0.0 0.0161701
GW 107 1 0.0 -0.4063999 0.0 0.1016 -0.4063999 0.0 0.0161701
GW 108 1 0.1016 -0.4063999 0.0 0.2032 -0.4063999 0.0 0.0161701
GW 109 1 0.2032 -0.4063999 0.0 0.3047999 -0.4063999 0.0 0.0161701
GW 110 1 0.3047999 -0.4063999 0.0 0.4063999 -0.4063999 0.0 0.0161701
GW 111 1 0.4063999 -0.4063999 0.0 0.508 -0.4063999 0.0 0.0161701
GW 112 1 0.508 -0.4063999 0.0 0.6095999 -0.4063999 0.0 0.0161701
GW 113 1 -0.6096 -0.508 0.0 -0.508 -0.508 0.0 0.0161701
GW 114 1 -0.508 -0.508 0.0 -0.4064 -0.508 0.0 0.0161701
GW 115 1 -0.4064 -0.508 0.0 -0.3048 -0.508 0.0 0.0161701
GW 116 1 -0.3048 -0.508 0.0 -0.2032 -0.508 0.0 0.0161701
GW 117 1 -0.2032 -0.508 0.0 -0.1016 -0.508 0.0 0.0161701
GW 118 1 -0.1016 -0.508 0.0 0.0 -0.508 0.0 0.0161701
GW 119 1 0.0 -0.508 0.0 0.1016 -0.508 0.0 0.0161701
GW 120 1 0.1016 -0.508 0.0 0.2032 -0.508 0.0 0.0161701
GW 121 1 0.2032 -0.508 0.0 0.3047999 -0.508 0.0 0.0161701
GW 122 1 0.3047999 -0.508 0.0 0.4063999 -0.508 0.0 0.0161701
GW 123 1 0.4063999 -0.508 0.0 0.508 -0.508 0.0 0.0161701
GW 124 1 0.508 -0.508 0.0 0.6095999 -0.508 0.0 0.0161701
GW 125 1 -0.6096 -0.6095999 0.0 -0.508 -0.6095999 0.0 0.0161701
GW 126 1 -0.508 -0.6095999 0.0 -0.4064 -0.6095999 0.0 0.0161701
GW 127 1 -0.4064 -0.6095999 0.0 -0.3048 -0.6095999 0.0 0.0161701
GW 128 1 -0.3048 -0.6095999 0.0 -0.2032 -0.6095999 0.0 0.0161701
GW 129 1 -0.2032 -0.6095999 0.0 -0.1016 -0.6095999 0.0 0.0161701
GW 130 1 -0.1016 -0.6095999 0.0 0.0 -0.6095999 0.0 0.0161701
GW 131 1 0.0 -0.6095999 0.0 0.1016 -0.6095999 0.0 0.0161701
GW 132 1 0.1016 -0.6095999 0.0 0.2032 -0.6095999 0.0 0.0161701
GW 133 1 0.2032 -0.6095999 0.0 0.3047999 -0.6095999 0.0 0.0161701
GW 134 1 0.3047999 -0.6095999 0.0 0.4063999 -0.6095999 0.0 0.0161701
GW 135 1 0.4063999 -0.6095999 0.0 0.508 -0.6095999 0.0 0.0161701
GW 136 1 0.508 -0.6095999 0.0 0.6095999 -0.6095999 0.0 0.0161701
GW 137 1 -0.6096 0.6096 0.0 -0.6096 0.508 0.0 0.0161701
GW 138 1 -0.6096 0.508 0.0 -0.6096 0.4064 0.0 0.0161701
GW 139 1 -0.6096 0.4064 0.0 -0.6096 0.3048 0.0 0.0161701
GW 140 1 -0.6096 0.3048 0.0 -0.6096 0.2032 0.0 0.0161701
GW 141 1 -0.6096 0.2032 0.0 -0.6096 0.1016 0.0 0.0161701
GW 142 1 -0.6096 0.1016 0.0 -0.6096 0.0 0.0 0.0161701
GW 143 1 -0.6096 0.0 0.0 -0.6096 -0.1016 0.0 0.0161701
GW 144 1 -0.6096 -0.1016 0.0 -0.6096 -0.2032 0.0 0.0161701
GW 145 1 -0.6096 -0.2032 0.0 -0.6096 -0.3047999 0.0 0.0161701
GW 146 1 -0.6096 -0.3047999 0.0 -0.6096 -0.4063999 0.0 0.0161701
GW 147 1 -0.6096 -0.4063999 0.0 -0.6096 -0.508 0.0 0.0161701
GW 148 1 -0.6096 -0.508 0.0 -0.6096 -0.6095999 0.0 0.0161701
GW 149 1 -0.508 0.6096 0.0 -0.508 0.508 0.0 0.0161701
GW 150 1 -0.508 0.508 0.0 -0.508 0.4064 0.0 0.0161701
GW 151 1 -0.508 0.4064 0.0 -0.508 0.3048 0.0 0.0161701
GW 152 1 -0.508 0.3048 0.0 -0.508 0.2032 0.0 0.0161701
GW 153 1 -0.508 0.2032 0.0 -0.508 0.1016 0.0 0.0161701
GW 154 1 -0.508 0.1016 0.0 -0.508 0.0 0.0 0.0161701
GW 155 1 -0.508 0.0 0.0 -0.508 -0.1016 0.0 0.0161701
GW 156 1 -0.508 -0.1016 0.0 -0.508 -0.2032 0.0 0.0161701
GW 157 1 -0.508 -0.2032 0.0 -0.508 -0.3047999 0.0 0.0161701
GW 158 1 -0.508 -0.3047999 0.0 -0.508 -0.4063999 0.0 0.0161701
GW 159 1 -0.508 -0.4063999 0.0 -0.508 -0.508 0.0 0.0161701
GW 160 1 -0.508 -0.508 0.0 -0.508 -0.6095999 0.0 0.0161701
GW 161 1 -0.4064 0.6096 0.0 -0.4064 0.508 0.0 0.0161701
GW 162 1 -0.4064 0.508 0.0 -0.4064 0.4064 0.0 0.0161701
GW 163 1 -0.4064 0.4064 0.0 -0.4064 0.3048 0.0 0.0161701
GW 164 1 -0.4064 0.3048 0.0 -0.4064 0.2032 0.0 0.0161701
GW 165 1 -0.4064 0.2032 0.0 -0.4064 0.1016 0.0 0.0161701
GW 166 1 -0.4064 0.1016 0.0 -0.4064 0.0 0.0 0.0161701
GW 167 1 -0.4064 0.0 0.0 -0.4064 -0.1016 0.0 0.0161701
GW 168 1 -0.4064 -0.1016 0.0 -0.4064 -0.2032 0.0 0.0161701
GW 169 1 -0.4064 -0.2032 0.0 -0.4064 -0.3047999 0.0 0.0161701
GW 170 1 -0.4064 -0.3047999 0.0 -0.4064 -0.4063999 0.0 0.0161701
GW 171 1 -0.4064 -0.4063999 0.0 -0.4064 -0.508 0.0 0.0161701
GW 172 1 -0.4064 -0.508 0.0 -0.4064 -0.6095999 0.0 0.0161701
GW 173 1 -0.3048 0.6096 0.0 -0.3048 0.508 0.0 0.0161701
GW 174 1 -0.3048 0.508 0.0 -0.3048 0.4064 0.0 0.0161701
GW 175 1 -0.3048 0.4064 0.0 -0.3048 0.3048 0.0 0.0161701
GW 176 1 -0.3048 0.3048 0.0 -0.3048 0.2032 0.0 0.0161701
GW 177 1 -0.3048 0.2032 0.0 -0.3048 0.1016 0.0 0.0161701
GW 178 1 -0.3048 0.1016 0.0 -0.3048 0.0 0.0 0.0161701
GW 179 1 -0.3048 0.0 0.0 -0.3048 -0.1016 0.0 0.0161701
GW 180 1 -0.3048 -0.1016 0.0 -0.3048 -0.2032 0.0 0.0161701
GW 181 1 -0.3048 -0.2032 0.0 -0.3048 -0.3047999 0.0 0.0161701
GW 182 1 -0.3048 -0.3047999 0.0 -0.3048 -0.4063999 0.0 0.0161701
GW 183 1 -0.3048 -0.4063999 0.0 -0.3048 -0.508 0.0 0.0161701
GW 184 1 -0.3048 -0.508 0.0 -0.3048 -0.6095999 0.0 0.0161701
GW 185 1 -0.2032 0.6096 0.0 -0.2032 0.508 0.0 0.0161701
GW 186 1 -0.2032 0.508 0.0 -0.2032 0.4064 0.0 0.0161701
GW 187 1 -0.2032 0.4064 0.0 -0.2032 0.3048 0.0 0.0161701
GW 188 1 -0.2032 0.3048 0.0 -0.2032 0.2032 0.0 0.0161701
GW 189 1 -0.2032 -0.2032 0.0 -0.2032 -0.3047999 0.0 0.0161701
GW 190 1 -0.2032 -0.3047999 0.0 -0.2032 -0.4063999 0.0 0.0161701
GW 191 1 -0.2032 -0.4063999 0.0 -0.2032 -0.508 0.0 0.0161701
GW 192 1 -0.2032 -0.508 0.0 -0.2032 -0.6095999 0.0 0.0161701
GW 193 1 -0.1016 0.6096 0.0 -0.1016 0.508 0.0 0.0161701
GW 194 1 -0.1016 0.508 0.0 -0.1016 0.4064 0.0 0.0161701
GW 195 1 -0.1016 0.4064 0.0 -0.1016 0.3048 0.0 0.0161701
GW 196 1 -0.1016 0.3048 0.0 -0.1016 0.2032 0.0 0.0161701
GW 197 1 -0.1016 -0.2032 0.0 -0.1016 -0.3047999 0.0 0.0161701
GW 198 1 -0.1016 -0.3047999 0.0 -0.1016 -0.4063999 0.0 0.0161701
GW 199 1 -0.1016 -0.4063999 0.0 -0.1016 -0.508 0.0 0.0161701
GW 200 1 -0.1016 -0.508 0.0 -0.1016 -0.6095999 0.0 0.0161701
GW 201 1 0.0 0.6096 0.0 0.0 0.508 0.0 0.0161701
GW 202 1 0.0 0.508 0.0 0.0 0.4064 0.0 0.0161701
GW 203 1 0.0 0.4064 0.0 0.0 0.3048 0.0 0.0161701
GW 204 1 0.0 0.3048 0.0 0.0 0.2032 0.0 0.0161701
GW 205 1 0.0 -0.2032 0.0 0.0 -0.3047999 0.0 0.0161701
GW 206 1 0.0 -0.3047999 0.0 0.0 -0.4063999 0.0 0.0161701
GW 207 1 0.0 -0.4063999 0.0 0.0 -0.508 0.0 0.0161701
GW 208 1 0.0 -0.508 0.0 0.0 -0.6095999 0.0 0.0161701
GW 209 1 0.1016 0.6096 0.0 0.1016 0.508 0.0 0.0161701
GW 210 1 0.1016 0.508 0.0 0.1016 0.4064 0.0 0.0161701
GW 211 1 0.1016 0.4064 0.0 0.1016 0.3048 0.0 0.0161701
GW 212 1 0.1016 0.3048 0.0 0.1016 0.2032 0.0 0.0161701
GW 213 1 0.1016 -0.2032 0.0 0.1016 -0.3047999 0.0 0.0161701
GW 214 1 0.1016 -0.3047999 0.0 0.1016 -0.4063999 0.0 0.0161701
GW 215 1 0.1016 -0.4063999 0.0 0.1016 -0.508 0.0 0.0161701
GW 216 1 0.1016 -0.508 0.0 0.1016 -0.6095999 0.0 0.0161701
GW 217 1 0.2032 0.6096 0.0 0.2032 0.508 0.0 0.0161701
GW 218 1 0.2032 0.508 0.0 0.2032 0.4064 0.0 0.0161701
GW 219 1 0.2032 0.4064 0.0 0.2032 0.3048 0.0 0.0161701
GW 220 1 0.2032 0.3048 0.0 0.2032 0.2032 0.0 0.0161701
GW 221 1 0.2032 -0.2032 0.0 0.2032 -0.3047999 0.0 0.0161701
GW 222 1 0.2032 -0.3047999 0.0 0.2032 -0.4063999 0.0 0.0161701
GW 223 1 0.2032 -0.4063999 0.0 0.2032 -0.508 0.0 0.0161701
GW 224 1 0.2032 -0.508 0.0 0.2032 -0.6095999 0.0 0.0161701
GW 225 1 0.3047999 0.6096 0.0 0.3047999 0.508 0.0 0.0161701
GW 226 1 0.3047999 0.508 0.0 0.3047999 0.4064 0.0 0.0161701
GW 227 1 0.3047999 0.4064 0.0 0.3047999 0.3048 0.0 0.0161701
GW 228 1 0.3047999 0.3048 0.0 0.3047999 0.2032 0.0 0.0161701
GW 229 1 0.3047999 0.2032 0.0 0.3047999 0.1016 0.0 0.0161701
GW 230 1 0.3047999 0.1016 0.0 0.3047999 0.0 0.0 0.0161701
GW 231 1 0.3047999 0.0 0.0 0.3047999 -0.1016 0.0 0.0161701
GW 232 1 0.3047999 -0.1016 0.0 0.3047999 -0.2032 0.0 0.0161701
GW 233 1 0.3047999 -0.2032 0.0 0.3047999 -0.3047999 0.0 0.0161701
GW 234 1 0.3047999 -0.3047999 0.0 0.3047999 -0.4063999 0.0 0.0161701
GW 235 1 0.3047999 -0.4063999 0.0 0.3047999 -0.508 0.0 0.0161701
GW 236 1 0.3047999 -0.508 0.0 0.3047999 -0.6095999 0.0 0.0161701
GW 237 1 0.4063999 0.6096 0.0 0.4063999 0.508 0.0 0.0161701
GW 238 1 0.4063999 0.508 0.0 0.4063999 0.4064 0.0 0.0161701
GW 239 1 0.4063999 0.4064 0.0 0.4063999 0.3048 0.0 0.0161701
GW 240 1 0.4063999 0.3048 0.0 0.4063999 0.2032 0.0 0.0161701
GW 241 1 0.4063999 0.2032 0.0 0.4063999 0.1016 0.0 0.0161701
GW 242 1 0.4063999 0.1016 0.0 0.4063999 0.0 0.0 0.0161701
GW 243 1 0.4063999 0.0 0.0 0.4063999 -0.1016 0.0 0.0161701
GW 244 1 0.4063999 -0.1016 0.0 0.4063999 -0.2032 0.0 0.0161701
GW 245 1 0.4063999 -0.2032 0.0 0.4063999 -0.3047999 0.0 0.0161701
GW 246 1 0.4063999 -0.3047999 0.0 0.4063999 -0.4063999 0.0 0.0161701
GW 247 1 0.4063999 -0.4063999 0.0 0.4063999 -0.508 0.0 0.0161701
GW 248 1 0.4063999 -0.508 0.0 0.4063999 -0.6095999 0.0 0.0161701
GW 249 1 0.508 0.6096 0.0 0.508 0.508 0.0 0.0161701
GW 250 1 0.508 0.508 0.0 0.508 0.4064 0.0 0.0161701
GW 251 1 0.508 0.4064 0.0 0.508 0.3048 0.0 0.0161701
GW 252 1 0.508 0.3048 0.0 0.508 0.2032 0.0 0.0161701
GW 253 1 0.508 0.2032 0.0 0.508 0.1016 0.0 0.0161701
GW 254 1 0.508 0.1016 0.0 0.508 0.0 0.0 0.0161701
GW 255 1 0.508 0.0 0.0 0.508 -0.1016 0.0 0.0161701
GW 256 1 0.508 -0.1016 0.0 0.508 -0.2032 0.0 0.0161701
GW 257 1 0.508 -0.2032 0.0 0.508 -0.3047999 0.0 0.0161701
GW 258 1 0.508 -0.3047999 0.0 0.508 -0.4063999 0.0 0.0161701
GW 259 1 0.508 -0.4063999 0.0 0.508 -0.508 0.0 0.0161701
GW 260 1 0.508 -0.508 0.0 0.508 -0.6095999 0.0 0.0161701
GW 261 1 0.6095999 0.6096 0.0 0.6095999 0.508 0.0 0.0161701
GW 262 1 0.6095999 0.508 0.0 0.6095999 0.4064 0.0 0.0161701
GW 263 1 0.6095999 0.4064 0.0 0.6095999 0.3048 0.0 0.0161701
GW 264 1 0.6095999 0.3048 0.0 0.6095999 0.2032 0.0 0.0161701
GW 265 1 0.6095999 0.2032 0.0 0.6095999 0.1016 0.0 0.0161701
GW 266 1 0.6095999 0.1016 0.0 0.6095999 0.0 0.0 0.0161701
GW 267 1 0.6095999 0.0 0.0 0.6095999 -0.1016 0.0 0.0161701
GW 268 1 0.6095999 -0.1016 0.0 0.6095999 -0.2032 0.0 0.0161701
GW 269 1 0.6095999 -0.2032 0.0 0.6095999 -0.3047999 0.0 0.0161701
GW 270 1 0.6095999 -0.3047999 0.0 0.6095999 -0.4063999 0.0 0.0161701
GW 271 1 0.6095999 -0.4063999 0.0 0.6095999 -0.508 0.0 0.0161701
GW 272 1 0.6095999 -0.508 0.0 0.6095999 -0.6095999 0.0 0.0161701
GE 0
FR 0 1 0 0 300.
GN -1
EX 0 1 1 0 0.0 1.414214
RP 0 1 361 1000 90.0 0.0 0.0 1.0 0.
EN
