GW   1    8  0.049938  0.064928  0.041102  0.049938  0.064928  0.281102  0.001000
GS   0    0         1
GE   0   -1         0
GN  -1
FR   0    1    0    0 100.00000  10.00000
EX   0    1    1    0   1.00000   0.00000
RP   0   46   90 1000         0   0.00000   4.00000   4.00000   0.00000
EN