GW   1    1 -0.609600  0.609600  0.000000 -0.508000  0.609600  0.000000  0.016170
GW   2    1 -0.508000  0.609600  0.000000 -0.406400  0.609600  0.000000  0.016170
GW   3    1 -0.406400  0.609600  0.000000 -0.304800  0.609600  0.000000  0.016170
GW   4    1 -0.304800  0.609600  0.000000 -0.203200  0.609600  0.000000  0.016170
GW   5    1 -0.203200  0.609600  0.000000 -0.101600  0.609600  0.000000  0.016170
GW   6    1 -0.101600  0.609600  0.000000  0.000000  0.609600  0.000000  0.016170
GW   7    1  0.000000  0.609600  0.000000  0.101600  0.609600  0.000000  0.016170
GW   8    1  0.101600  0.609600  0.000000  0.203200  0.609600  0.000000  0.016170
GW   9    1  0.203200  0.609600  0.000000  0.304800  0.609600  0.000000  0.016170
GW  10    1  0.304800  0.609600  0.000000  0.406400  0.609600  0.000000  0.016170
GW  11    1  0.406400  0.609600  0.000000  0.508000  0.609600  0.000000  0.016170
GW  12    1  0.508000  0.609600  0.000000  0.609600  0.609600  0.000000  0.016170
GW  13    1 -0.609600  0.508000  0.000000 -0.508000  0.508000  0.000000  0.016170
GW  14    1 -0.508000  0.508000  0.000000 -0.406400  0.508000  0.000000  0.016170
GW  15    1 -0.406400  0.508000  0.000000 -0.304800  0.508000  0.000000  0.016170
GW  16    1 -0.304800  0.508000  0.000000 -0.203200  0.508000  0.000000  0.016170
GW  17    1 -0.203200  0.508000  0.000000 -0.101600  0.508000  0.000000  0.016170
GW  18    1 -0.101600  0.508000  0.000000  0.000000  0.508000  0.000000  0.016170
GW  19    1  0.000000  0.508000  0.000000  0.101600  0.508000  0.000000  0.016170
GW  20    1  0.101600  0.508000  0.000000  0.203200  0.508000  0.000000  0.016170
GW  21    1  0.203200  0.508000  0.000000  0.304800  0.508000  0.000000  0.016170
GW  22    1  0.304800  0.508000  0.000000  0.406400  0.508000  0.000000  0.016170
GW  23    1  0.406400  0.508000  0.000000  0.508000  0.508000  0.000000  0.016170
GW  24    1  0.508000  0.508000  0.000000  0.609600  0.508000  0.000000  0.016170
GW  25    1 -0.609600  0.406400  0.000000 -0.508000  0.406400  0.000000  0.016170
GW  26    1 -0.508000  0.406400  0.000000 -0.406400  0.406400  0.000000  0.016170
GW  27    1 -0.406400  0.406400  0.000000 -0.304800  0.406400  0.000000  0.016170
GW  28    1 -0.304800  0.406400  0.000000 -0.203200  0.406400  0.000000  0.016170
GW  29    1 -0.203200  0.406400  0.000000 -0.101600  0.406400  0.000000  0.016170
GW  30    1 -0.101600  0.406400  0.000000  0.000000  0.406400  0.000000  0.016170
GW  31    1  0.000000  0.406400  0.000000  0.101600  0.406400  0.000000  0.016170
GW  32    1  0.101600  0.406400  0.000000  0.203200  0.406400  0.000000  0.016170
GW  33    1  0.203200  0.406400  0.000000  0.304800  0.406400  0.000000  0.016170
GW  34    1  0.304800  0.406400  0.000000  0.406400  0.406400  0.000000  0.016170
GW  35    1  0.406400  0.406400  0.000000  0.508000  0.406400  0.000000  0.016170
GW  36    1  0.508000  0.406400  0.000000  0.609600  0.406400  0.000000  0.016170
GW  37    1 -0.609600  0.304800  0.000000 -0.508000  0.304800  0.000000  0.016170
GW  38    1 -0.508000  0.304800  0.000000 -0.406400  0.304800  0.000000  0.016170
GW  39    1 -0.406400  0.304800  0.000000 -0.304800  0.304800  0.000000  0.016170
GW  40    1 -0.304800  0.304800  0.000000 -0.203200  0.304800  0.000000  0.016170
GW  41    1 -0.203200  0.304800  0.000000 -0.101600  0.304800  0.000000  0.016170
GW  42    1 -0.101600  0.304800  0.000000  0.000000  0.304800  0.000000  0.016170
GW  43    1  0.000000  0.304800  0.000000  0.101600  0.304800  0.000000  0.016170
GW  44    1  0.101600  0.304800  0.000000  0.203200  0.304800  0.000000  0.016170
GW  45    1  0.203200  0.304800  0.000000  0.304800  0.304800  0.000000  0.016170
GW  46    1  0.304800  0.304800  0.000000  0.406400  0.304800  0.000000  0.016170
GW  47    1  0.406400  0.304800  0.000000  0.508000  0.304800  0.000000  0.016170
GW  48    1  0.508000  0.304800  0.000000  0.609600  0.304800  0.000000  0.016170
GW  49    1 -0.609600  0.203200  0.000000 -0.508000  0.203200  0.000000  0.016170
GW  50    1 -0.508000  0.203200  0.000000 -0.406400  0.203200  0.000000  0.016170
GW  51    1 -0.406400  0.203200  0.000000 -0.304800  0.203200  0.000000  0.016170
GW  52    1 -0.304800  0.203200  0.000000 -0.203200  0.203200  0.000000  0.016170
GW  53    1  0.203200  0.203200  0.000000  0.304800  0.203200  0.000000  0.016170
GW  54    1  0.304800  0.203200  0.000000  0.406400  0.203200  0.000000  0.016170
GW  55    1  0.406400  0.203200  0.000000  0.508000  0.203200  0.000000  0.016170
GW  56    1  0.508000  0.203200  0.000000  0.609600  0.203200  0.000000  0.016170
GW  57    1 -0.609600  0.101600  0.000000 -0.508000  0.101600  0.000000  0.016170
GW  58    1 -0.508000  0.101600  0.000000 -0.406400  0.101600  0.000000  0.016170
GW  59    1 -0.406400  0.101600  0.000000 -0.304800  0.101600  0.000000  0.016170
GW  60    1 -0.304800  0.101600  0.000000 -0.203200  0.101600  0.000000  0.016170
GW  61    1  0.203200  0.101600  0.000000  0.304800  0.101600  0.000000  0.016170
GW  62    1  0.304800  0.101600  0.000000  0.406400  0.101600  0.000000  0.016170
GW  63    1  0.406400  0.101600  0.000000  0.508000  0.101600  0.000000  0.016170
GW  64    1  0.508000  0.101600  0.000000  0.609600  0.101600  0.000000  0.016170
GW  65    1 -0.609600  0.000000  0.000000 -0.508000  0.000000  0.000000  0.016170
GW  66    1 -0.508000  0.000000  0.000000 -0.406400  0.000000  0.000000  0.016170
GW  67    1 -0.406400  0.000000  0.000000 -0.304800  0.000000  0.000000  0.016170
GW  68    1 -0.304800  0.000000  0.000000 -0.203200  0.000000  0.000000  0.016170
GW  69    1  0.203200  0.000000  0.000000  0.304800  0.000000  0.000000  0.016170
GW  70    1  0.304800  0.000000  0.000000  0.406400  0.000000  0.000000  0.016170
GW  71    1  0.406400  0.000000  0.000000  0.508000  0.000000  0.000000  0.016170
GW  72    1  0.508000  0.000000  0.000000  0.609600  0.000000  0.000000  0.016170
GW  73    1 -0.609600 -0.101600  0.000000 -0.508000 -0.101600  0.000000  0.016170
GW  74    1 -0.508000 -0.101600  0.000000 -0.406400 -0.101600  0.000000  0.016170
GW  75    1 -0.406400 -0.101600  0.000000 -0.304800 -0.101600  0.000000  0.016170
GW  76    1 -0.304800 -0.101600  0.000000 -0.203200 -0.101600  0.000000  0.016170
GW  77    1  0.203200 -0.101600  0.000000  0.304800 -0.101600  0.000000  0.016170
GW  78    1  0.304800 -0.101600  0.000000  0.406400 -0.101600  0.000000  0.016170
GW  79    1  0.406400 -0.101600  0.000000  0.508000 -0.101600  0.000000  0.016170
GW  80    1  0.508000 -0.101600  0.000000  0.609600 -0.101600  0.000000  0.016170
GW  81    1 -0.609600 -0.203200  0.000000 -0.508000 -0.203200  0.000000  0.016170
GW  82    1 -0.508000 -0.203200  0.000000 -0.406400 -0.203200  0.000000  0.016170
GW  83    1 -0.406400 -0.203200  0.000000 -0.304800 -0.203200  0.000000  0.016170
GW  84    1 -0.304800 -0.203200  0.000000 -0.203200 -0.203200  0.000000  0.016170
GW  85    1  0.203200 -0.203200  0.000000  0.304800 -0.203200  0.000000  0.016170
GW  86    1  0.304800 -0.203200  0.000000  0.406400 -0.203200  0.000000  0.016170
GW  87    1  0.406400 -0.203200  0.000000  0.508000 -0.203200  0.000000  0.016170
GW  88    1  0.508000 -0.203200  0.000000  0.609600 -0.203200  0.000000  0.016170
GW  89    1 -0.609600 -0.304800  0.000000 -0.508000 -0.304800  0.000000  0.016170
GW  90    1 -0.508000 -0.304800  0.000000 -0.406400 -0.304800  0.000000  0.016170
GW  91    1 -0.406400 -0.304800  0.000000 -0.304800 -0.304800  0.000000  0.016170
GW  92    1 -0.304800 -0.304800  0.000000 -0.203200 -0.304800  0.000000  0.016170
GW  93    1 -0.203200 -0.304800  0.000000 -0.101600 -0.304800  0.000000  0.016170
GW  94    1 -0.101600 -0.304800  0.000000  0.000000 -0.304800  0.000000  0.016170
GW  95    1  0.000000 -0.304800  0.000000  0.101600 -0.304800  0.000000  0.016170
GW  96    1  0.101600 -0.304800  0.000000  0.203200 -0.304800  0.000000  0.016170
GW  97    1  0.203200 -0.304800  0.000000  0.304800 -0.304800  0.000000  0.016170
GW  98    1  0.304800 -0.304800  0.000000  0.406400 -0.304800  0.000000  0.016170
GW  99    1  0.406400 -0.304800  0.000000  0.508000 -0.304800  0.000000  0.016170
GW 100    1  0.508000 -0.304800  0.000000  0.609600 -0.304800  0.000000  0.016170
GW 101    1 -0.609600 -0.406400  0.000000 -0.508000 -0.406400  0.000000  0.016170
GW 102    1 -0.508000 -0.406400  0.000000 -0.406400 -0.406400  0.000000  0.016170
GW 103    1 -0.406400 -0.406400  0.000000 -0.304800 -0.406400  0.000000  0.016170
GW 104    1 -0.304800 -0.406400  0.000000 -0.203200 -0.406400  0.000000  0.016170
GW 105    1 -0.203200 -0.406400  0.000000 -0.101600 -0.406400  0.000000  0.016170
GW 106    1 -0.101600 -0.406400  0.000000  0.000000 -0.406400  0.000000  0.016170
GW 107    1  0.000000 -0.406400  0.000000  0.101600 -0.406400  0.000000  0.016170
GW 108    1  0.101600 -0.406400  0.000000  0.203200 -0.406400  0.000000  0.016170
GW 109    1  0.203200 -0.406400  0.000000  0.304800 -0.406400  0.000000  0.016170
GW 110    1  0.304800 -0.406400  0.000000  0.406400 -0.406400  0.000000  0.016170
GW 111    1  0.406400 -0.406400  0.000000  0.508000 -0.406400  0.000000  0.016170
GW 112    1  0.508000 -0.406400  0.000000  0.609600 -0.406400  0.000000  0.016170
GW 113    1 -0.609600 -0.508000  0.000000 -0.508000 -0.508000  0.000000  0.016170
GW 114    1 -0.508000 -0.508000  0.000000 -0.406400 -0.508000  0.000000  0.016170
GW 115    1 -0.406400 -0.508000  0.000000 -0.304800 -0.508000  0.000000  0.016170
GW 116    1 -0.304800 -0.508000  0.000000 -0.203200 -0.508000  0.000000  0.016170
GW 117    1 -0.203200 -0.508000  0.000000 -0.101600 -0.508000  0.000000  0.016170
GW 118    1 -0.101600 -0.508000  0.000000  0.000000 -0.508000  0.000000  0.016170
GW 119    1  0.000000 -0.508000  0.000000  0.101600 -0.508000  0.000000  0.016170
GW 120    1  0.101600 -0.508000  0.000000  0.203200 -0.508000  0.000000  0.016170
GW 121    1  0.203200 -0.508000  0.000000  0.304800 -0.508000  0.000000  0.016170
GW 122    1  0.304800 -0.508000  0.000000  0.406400 -0.508000  0.000000  0.016170
GW 123    1  0.406400 -0.508000  0.000000  0.508000 -0.508000  0.000000  0.016170
GW 124    1  0.508000 -0.508000  0.000000  0.609600 -0.508000  0.000000  0.016170
GW 125    1 -0.609600 -0.609600  0.000000 -0.508000 -0.609600  0.000000  0.016170
GW 126    1 -0.508000 -0.609600  0.000000 -0.406400 -0.609600  0.000000  0.016170
GW 127    1 -0.406400 -0.609600  0.000000 -0.304800 -0.609600  0.000000  0.016170
GW 128    1 -0.304800 -0.609600  0.000000 -0.203200 -0.609600  0.000000  0.016170
GW 129    1 -0.203200 -0.609600  0.000000 -0.101600 -0.609600  0.000000  0.016170
GW 130    1 -0.101600 -0.609600  0.000000  0.000000 -0.609600  0.000000  0.016170
GW 131    1  0.000000 -0.609600  0.000000  0.101600 -0.609600  0.000000  0.016170
GW 132    1  0.101600 -0.609600  0.000000  0.203200 -0.609600  0.000000  0.016170
GW 133    1  0.203200 -0.609600  0.000000  0.304800 -0.609600  0.000000  0.016170
GW 134    1  0.304800 -0.609600  0.000000  0.406400 -0.609600  0.000000  0.016170
GW 135    1  0.406400 -0.609600  0.000000  0.508000 -0.609600  0.000000  0.016170
GW 136    1  0.508000 -0.609600  0.000000  0.609600 -0.609600  0.000000  0.016170
GW 137    1 -0.609600  0.609600  0.000000 -0.609600  0.508000  0.000000  0.016170
GW 138    1 -0.609600  0.508000  0.000000 -0.609600  0.406400  0.000000  0.016170
GW 139    1 -0.609600  0.406400  0.000000 -0.609600  0.304800  0.000000  0.016170
GW 140    1 -0.609600  0.304800  0.000000 -0.609600  0.203200  0.000000  0.016170
GW 141    1 -0.609600  0.203200  0.000000 -0.609600  0.101600  0.000000  0.016170
GW 142    1 -0.609600  0.101600  0.000000 -0.609600  0.000000  0.000000  0.016170
GW 143    1 -0.609600  0.000000  0.000000 -0.609600 -0.101600  0.000000  0.016170
GW 144    1 -0.609600 -0.101600  0.000000 -0.609600 -0.203200  0.000000  0.016170
GW 145    1 -0.609600 -0.203200  0.000000 -0.609600 -0.304800  0.000000  0.016170
GW 146    1 -0.609600 -0.304800  0.000000 -0.609600 -0.406400  0.000000  0.016170
GW 147    1 -0.609600 -0.406400  0.000000 -0.609600 -0.508000  0.000000  0.016170
GW 148    1 -0.609600 -0.508000  0.000000 -0.609600 -0.609600  0.000000  0.016170
GW 149    1 -0.508000  0.609600  0.000000 -0.508000  0.508000  0.000000  0.016170
GW 150    1 -0.508000  0.508000  0.000000 -0.508000  0.406400  0.000000  0.016170
GW 151    1 -0.508000  0.406400  0.000000 -0.508000  0.304800  0.000000  0.016170
GW 152    1 -0.508000  0.304800  0.000000 -0.508000  0.203200  0.000000  0.016170
GW 153    1 -0.508000  0.203200  0.000000 -0.508000  0.101600  0.000000  0.016170
GW 154    1 -0.508000  0.101600  0.000000 -0.508000  0.000000  0.000000  0.016170
GW 155    1 -0.508000  0.000000  0.000000 -0.508000 -0.101600  0.000000  0.016170
GW 156    1 -0.508000 -0.101600  0.000000 -0.508000 -0.203200  0.000000  0.016170
GW 157    1 -0.508000 -0.203200  0.000000 -0.508000 -0.304800  0.000000  0.016170
GW 158    1 -0.508000 -0.304800  0.000000 -0.508000 -0.406400  0.000000  0.016170
GW 159    1 -0.508000 -0.406400  0.000000 -0.508000 -0.508000  0.000000  0.016170
GW 160    1 -0.508000 -0.508000  0.000000 -0.508000 -0.609600  0.000000  0.016170
GW 161    1 -0.406400  0.609600  0.000000 -0.406400  0.508000  0.000000  0.016170
GW 162    1 -0.406400  0.508000  0.000000 -0.406400  0.406400  0.000000  0.016170
GW 163    1 -0.406400  0.406400  0.000000 -0.406400  0.304800  0.000000  0.016170
GW 164    1 -0.406400  0.304800  0.000000 -0.406400  0.203200  0.000000  0.016170
GW 165    1 -0.406400  0.203200  0.000000 -0.406400  0.101600  0.000000  0.016170
GW 166    1 -0.406400  0.101600  0.000000 -0.406400  0.000000  0.000000  0.016170
GW 167    1 -0.406400  0.000000  0.000000 -0.406400 -0.101600  0.000000  0.016170
GW 168    1 -0.406400 -0.101600  0.000000 -0.406400 -0.203200  0.000000  0.016170
GW 169    1 -0.406400 -0.203200  0.000000 -0.406400 -0.304800  0.000000  0.016170
GW 170    1 -0.406400 -0.304800  0.000000 -0.406400 -0.406400  0.000000  0.016170
GW 171    1 -0.406400 -0.406400  0.000000 -0.406400 -0.508000  0.000000  0.016170
GW 172    1 -0.406400 -0.508000  0.000000 -0.406400 -0.609600  0.000000  0.016170
GW 173    1 -0.304800  0.609600  0.000000 -0.304800  0.508000  0.000000  0.016170
GW 174    1 -0.304800  0.508000  0.000000 -0.304800  0.406400  0.000000  0.016170
GW 175    1 -0.304800  0.406400  0.000000 -0.304800  0.304800  0.000000  0.016170
GW 176    1 -0.304800  0.304800  0.000000 -0.304800  0.203200  0.000000  0.016170
GW 177    1 -0.304800  0.203200  0.000000 -0.304800  0.101600  0.000000  0.016170
GW 178    1 -0.304800  0.101600  0.000000 -0.304800  0.000000  0.000000  0.016170
GW 179    1 -0.304800  0.000000  0.000000 -0.304800 -0.101600  0.000000  0.016170
GW 180    1 -0.304800 -0.101600  0.000000 -0.304800 -0.203200  0.000000  0.016170
GW 181    1 -0.304800 -0.203200  0.000000 -0.304800 -0.304800  0.000000  0.016170
GW 182    1 -0.304800 -0.304800  0.000000 -0.304800 -0.406400  0.000000  0.016170
GW 183    1 -0.304800 -0.406400  0.000000 -0.304800 -0.508000  0.000000  0.016170
GW 184    1 -0.304800 -0.508000  0.000000 -0.304800 -0.609600  0.000000  0.016170
GW 185    1 -0.203200  0.609600  0.000000 -0.203200  0.508000  0.000000  0.016170
GW 186    1 -0.203200  0.508000  0.000000 -0.203200  0.406400  0.000000  0.016170
GW 187    1 -0.203200  0.406400  0.000000 -0.203200  0.304800  0.000000  0.016170
GW 188    1 -0.203200  0.304800  0.000000 -0.203200  0.203200  0.000000  0.016170
GW 189    1 -0.203200 -0.203200  0.000000 -0.203200 -0.304800  0.000000  0.016170
GW 190    1 -0.203200 -0.304800  0.000000 -0.203200 -0.406400  0.000000  0.016170
GW 191    1 -0.203200 -0.406400  0.000000 -0.203200 -0.508000  0.000000  0.016170
GW 192    1 -0.203200 -0.508000  0.000000 -0.203200 -0.609600  0.000000  0.016170
GW 193    1 -0.101600  0.609600  0.000000 -0.101600  0.508000  0.000000  0.016170
GW 194    1 -0.101600  0.508000  0.000000 -0.101600  0.406400  0.000000  0.016170
GW 195    1 -0.101600  0.406400  0.000000 -0.101600  0.304800  0.000000  0.016170
GW 196    1 -0.101600  0.304800  0.000000 -0.101600  0.203200  0.000000  0.016170
GW 197    1 -0.101600 -0.203200  0.000000 -0.101600 -0.304800  0.000000  0.016170
GW 198    1 -0.101600 -0.304800  0.000000 -0.101600 -0.406400  0.000000  0.016170
GW 199    1 -0.101600 -0.406400  0.000000 -0.101600 -0.508000  0.000000  0.016170
GW 200    1 -0.101600 -0.508000  0.000000 -0.101600 -0.609600  0.000000  0.016170
GW 201    1  0.000000  0.609600  0.000000  0.000000  0.508000  0.000000  0.016170
GW 202    1  0.000000  0.508000  0.000000  0.000000  0.406400  0.000000  0.016170
GW 203    1  0.000000  0.406400  0.000000  0.000000  0.304800  0.000000  0.016170
GW 204    1  0.000000  0.304800  0.000000  0.000000  0.203200  0.000000  0.016170
GW 205    1  0.000000 -0.203200  0.000000  0.000000 -0.304800  0.000000  0.016170
GW 206    1  0.000000 -0.304800  0.000000  0.000000 -0.406400  0.000000  0.016170
GW 207    1  0.000000 -0.406400  0.000000  0.000000 -0.508000  0.000000  0.016170
GW 208    1  0.000000 -0.508000  0.000000  0.000000 -0.609600  0.000000  0.016170
GW 209    1  0.101600  0.609600  0.000000  0.101600  0.508000  0.000000  0.016170
GW 210    1  0.101600  0.508000  0.000000  0.101600  0.406400  0.000000  0.016170
GW 211    1  0.101600  0.406400  0.000000  0.101600  0.304800  0.000000  0.016170
GW 212    1  0.101600  0.304800  0.000000  0.101600  0.203200  0.000000  0.016170
GW 213    1  0.101600 -0.203200  0.000000  0.101600 -0.304800  0.000000  0.016170
GW 214    1  0.101600 -0.304800  0.000000  0.101600 -0.406400  0.000000  0.016170
GW 215    1  0.101600 -0.406400  0.000000  0.101600 -0.508000  0.000000  0.016170
GW 216    1  0.101600 -0.508000  0.000000  0.101600 -0.609600  0.000000  0.016170
GW 217    1  0.203200  0.609600  0.000000  0.203200  0.508000  0.000000  0.016170
GW 218    1  0.203200  0.508000  0.000000  0.203200  0.406400  0.000000  0.016170
GW 219    1  0.203200  0.406400  0.000000  0.203200  0.304800  0.000000  0.016170
GW 220    1  0.203200  0.304800  0.000000  0.203200  0.203200  0.000000  0.016170
GW 221    1  0.203200 -0.203200  0.000000  0.203200 -0.304800  0.000000  0.016170
GW 222    1  0.203200 -0.304800  0.000000  0.203200 -0.406400  0.000000  0.016170
GW 223    1  0.203200 -0.406400  0.000000  0.203200 -0.508000  0.000000  0.016170
GW 224    1  0.203200 -0.508000  0.000000  0.203200 -0.609600  0.000000  0.016170
GW 225    1  0.304800  0.609600  0.000000  0.304800  0.508000  0.000000  0.016170
GW 226    1  0.304800  0.508000  0.000000  0.304800  0.406400  0.000000  0.016170
GW 227    1  0.304800  0.406400  0.000000  0.304800  0.304800  0.000000  0.016170
GW 228    1  0.304800  0.304800  0.000000  0.304800  0.203200  0.000000  0.016170
GW 229    1  0.304800  0.203200  0.000000  0.304800  0.101600  0.000000  0.016170
GW 230    1  0.304800  0.101600  0.000000  0.304800  0.000000  0.000000  0.016170
GW 231    1  0.304800  0.000000  0.000000  0.304800 -0.101600  0.000000  0.016170
GW 232    1  0.304800 -0.101600  0.000000  0.304800 -0.203200  0.000000  0.016170
GW 233    1  0.304800 -0.203200  0.000000  0.304800 -0.304800  0.000000  0.016170
GW 234    1  0.304800 -0.304800  0.000000  0.304800 -0.406400  0.000000  0.016170
GW 235    1  0.304800 -0.406400  0.000000  0.304800 -0.508000  0.000000  0.016170
GW 236    1  0.304800 -0.508000  0.000000  0.304800 -0.609600  0.000000  0.016170
GW 237    1  0.406400  0.609600  0.000000  0.406400  0.508000  0.000000  0.016170
GW 238    1  0.406400  0.508000  0.000000  0.406400  0.406400  0.000000  0.016170
GW 239    1  0.406400  0.406400  0.000000  0.406400  0.304800  0.000000  0.016170
GW 240    1  0.406400  0.304800  0.000000  0.406400  0.203200  0.000000  0.016170
GW 241    1  0.406400  0.203200  0.000000  0.406400  0.101600  0.000000  0.016170
GW 242    1  0.406400  0.101600  0.000000  0.406400  0.000000  0.000000  0.016170
GW 243    1  0.406400  0.000000  0.000000  0.406400 -0.101600  0.000000  0.016170
GW 244    1  0.406400 -0.101600  0.000000  0.406400 -0.203200  0.000000  0.016170
GW 245    1  0.406400 -0.203200  0.000000  0.406400 -0.304800  0.000000  0.016170
GW 246    1  0.406400 -0.304800  0.000000  0.406400 -0.406400  0.000000  0.016170
GW 247    1  0.406400 -0.406400  0.000000  0.406400 -0.508000  0.000000  0.016170
GW 248    1  0.406400 -0.508000  0.000000  0.406400 -0.609600  0.000000  0.016170
GW 249    1  0.508000  0.609600  0.000000  0.508000  0.508000  0.000000  0.016170
GW 250    1  0.508000  0.508000  0.000000  0.508000  0.406400  0.000000  0.016170
GW 251    1  0.508000  0.406400  0.000000  0.508000  0.304800  0.000000  0.016170
GW 252    1  0.508000  0.304800  0.000000  0.508000  0.203200  0.000000  0.016170
GW 253    1  0.508000  0.203200  0.000000  0.508000  0.101600  0.000000  0.016170
GW 254    1  0.508000  0.101600  0.000000  0.508000  0.000000  0.000000  0.016170
GW 255    1  0.508000  0.000000  0.000000  0.508000 -0.101600  0.000000  0.016170
GW 256    1  0.508000 -0.101600  0.000000  0.508000 -0.203200  0.000000  0.016170
GW 257    1  0.508000 -0.203200  0.000000  0.508000 -0.304800  0.000000  0.016170
GW 258    1  0.508000 -0.304800  0.000000  0.508000 -0.406400  0.000000  0.016170
GW 259    1  0.508000 -0.406400  0.000000  0.508000 -0.508000  0.000000  0.016170
GW 260    1  0.508000 -0.508000  0.000000  0.508000 -0.609600  0.000000  0.016170
GW 261    1  0.609600  0.609600  0.000000  0.609600  0.508000  0.000000  0.016170
GW 262    1  0.609600  0.508000  0.000000  0.609600  0.406400  0.000000  0.016170
GW 263    1  0.609600  0.406400  0.000000  0.609600  0.304800  0.000000  0.016170
GW 264    1  0.609600  0.304800  0.000000  0.609600  0.203200  0.000000  0.016170
GW 265    1  0.609600  0.203200  0.000000  0.609600  0.101600  0.000000  0.016170
GW 266    1  0.609600  0.101600  0.000000  0.609600  0.000000  0.000000  0.016170
GW 267    1  0.609600  0.000000  0.000000  0.609600 -0.101600  0.000000  0.016170
GW 268    1  0.609600 -0.101600  0.000000  0.609600 -0.203200  0.000000  0.016170
GW 269    1  0.609600 -0.203200  0.000000  0.609600 -0.304800  0.000000  0.016170
GW 270    1  0.609600 -0.304800  0.000000  0.609600 -0.406400  0.000000  0.016170
GW 271    1  0.609600 -0.406400  0.000000  0.609600 -0.508000  0.000000  0.016170
GW 272    1  0.609600 -0.508000  0.000000  0.609600 -0.609600  0.000000  0.016170
GW 273    1 -0.203200  0.101600  0.203200 -0.101600  0.101600  0.203200  0.016170
GW 274    1 -0.101600  0.101600  0.203200  0.000000  0.101600  0.203200  0.016170
GW 275    1  0.000000  0.101600  0.203200  0.101600  0.101600  0.203200  0.016170
GW 276    1  0.101600  0.101600  0.203200  0.203200  0.101600  0.203200  0.016170
GW 277    1 -0.203200  0.000000  0.203200 -0.101600  0.000000  0.203200  0.016170
GW 278    1 -0.101600  0.000000  0.203200  0.000000  0.000000  0.203200  0.016170
GW 279    1  0.000000  0.000000  0.203200  0.101600  0.000000  0.203200  0.016170
GW 280    1  0.101600  0.000000  0.203200  0.203200  0.000000  0.203200  0.016170
GW 281    1 -0.203200 -0.101600  0.203200 -0.101600 -0.101600  0.203200  0.016170
GW 282    1 -0.101600 -0.101600  0.203200  0.000000 -0.101600  0.203200  0.016170
GW 283    1  0.000000 -0.101600  0.203200  0.101600 -0.101600  0.203200  0.016170
GW 284    1  0.101600 -0.101600  0.203200  0.203200 -0.101600  0.203200  0.016170
GW 285    1 -0.101600  0.203200  0.203200 -0.101600  0.101600  0.203200  0.016170
GW 286    1 -0.101600  0.101600  0.203200 -0.101600  0.000000  0.203200  0.016170
GW 287    1 -0.101600  0.000000  0.203200 -0.101600 -0.101600  0.203200  0.016170
GW 288    1 -0.101600 -0.101600  0.203200 -0.101600 -0.203200  0.203200  0.016170
GW 289    1  0.000000  0.203200  0.203200  0.000000  0.101600  0.203200  0.016170
GW 290    1  0.000000  0.101600  0.203200  0.000000  0.000000  0.203200  0.016170
GW 291    1  0.000000  0.000000  0.203200  0.000000 -0.101600  0.203200  0.016170
GW 292    1  0.000000 -0.101600  0.203200  0.000000 -0.203200  0.203200  0.016170
GW 293    1  0.101600  0.203200  0.203200  0.101600  0.101600  0.203200  0.016170
GW 294    1  0.101600  0.101600  0.203200  0.101600  0.000000  0.203200  0.016170
GW 295    1  0.101600  0.000000  0.203200  0.101600 -0.101600  0.203200  0.016170
GW 296    1  0.101600 -0.101600  0.203200  0.101600 -0.203200  0.203200  0.016170
GW 297    1  0.101600  0.203200  0.203200  0.101600  0.203200  0.101600  0.016170
GW 298    1  0.101600  0.203200  0.101600  0.101600  0.203200  0.000000  0.016170
GW 299    1  0.000000  0.203200  0.203200  0.000000  0.203200  0.101600  0.016170
GW 300    1  0.000000  0.203200  0.101600  0.000000  0.203200  0.000000  0.016170
GW 301    1 -0.101600  0.203200  0.203200 -0.101600  0.203200  0.101600  0.016170
GW 302    1 -0.101600  0.203200  0.101600 -0.101600  0.203200  0.000000  0.016170
GW 303    1 -0.203200  0.203200  0.203200 -0.203200  0.203200  0.101600  0.016170
GW 304    1 -0.203200  0.203200  0.101600 -0.203200  0.203200  0.000000  0.016170
GW 305    1  0.203200  0.203200  0.203200  0.101600  0.203200  0.203200  0.016170
GW 306    1  0.101600  0.203200  0.203200  0.000000  0.203200  0.203200  0.016170
GW 307    1  0.000000  0.203200  0.203200 -0.101600  0.203200  0.203200  0.016170
GW 308    1 -0.101600  0.203200  0.203200 -0.203200  0.203200  0.203200  0.016170
GW 309    1  0.203200  0.203200  0.101600  0.101600  0.203200  0.101600  0.016170
GW 310    1  0.101600  0.203200  0.101600  0.000000  0.203200  0.101600  0.016170
GW 311    1  0.000000  0.203200  0.101600 -0.101600  0.203200  0.101600  0.016170
GW 312    1 -0.101600  0.203200  0.101600 -0.203200  0.203200  0.101600  0.016170
GW 313    1  0.203200  0.203200  0.000000  0.101600  0.203200  0.000000  0.016170
GW 314    1  0.101600  0.203200  0.000000  0.000000  0.203200  0.000000  0.016170
GW 315    1  0.000000  0.203200  0.000000 -0.101600  0.203200  0.000000  0.016170
GW 316    1 -0.101600  0.203200  0.000000 -0.203200  0.203200  0.000000  0.016170
GW 317    1  0.203200 -0.101600  0.000000  0.203200 -0.101600  0.101600  0.016170
GW 318    1  0.203200 -0.101600  0.101600  0.203200 -0.101600  0.203200  0.016170
GW 319    1  0.203200  0.000000  0.000000  0.203200  0.000000  0.101600  0.016170
GW 320    1  0.203200  0.000000  0.101600  0.203200  0.000000  0.203200  0.016170
GW 321    1  0.203200  0.101600  0.000000  0.203200  0.101600  0.101600  0.016170
GW 322    1  0.203200  0.101600  0.101600  0.203200  0.101600  0.203200  0.016170
GW 323    1  0.203200  0.203200  0.000000  0.203200  0.203200  0.101600  0.016170
GW 324    1  0.203200  0.203200  0.101600  0.203200  0.203200  0.203200  0.016170
GW 325    1  0.203200 -0.203200  0.000000  0.203200 -0.101600  0.000000  0.016170
GW 326    1  0.203200 -0.101600  0.000000  0.203200  0.000000  0.000000  0.016170
GW 327    1  0.203200  0.000000  0.000000  0.203200  0.101600  0.000000  0.016170
GW 328    1  0.203200  0.101600  0.000000  0.203200  0.203200  0.000000  0.016170
GW 329    1  0.203200 -0.203200  0.101600  0.203200 -0.101600  0.101600  0.016170
GW 330    1  0.203200 -0.101600  0.101600  0.203200  0.000000  0.101600  0.016170
GW 331    1  0.203200  0.000000  0.101600  0.203200  0.101600  0.101600  0.016170
GW 332    1  0.203200  0.101600  0.101600  0.203200  0.203200  0.101600  0.016170
GW 333    1  0.203200 -0.203200  0.203200  0.203200 -0.101600  0.203200  0.016170
GW 334    1  0.203200 -0.101600  0.203200  0.203200  0.000000  0.203200  0.016170
GW 335    1  0.203200  0.000000  0.203200  0.203200  0.101600  0.203200  0.016170
GW 336    1  0.203200  0.101600  0.203200  0.203200  0.203200  0.203200  0.016170
GW 337    1 -0.101600 -0.203200  0.000000 -0.101600 -0.203200  0.101600  0.016170
GW 338    1 -0.101600 -0.203200  0.101600 -0.101600 -0.203200  0.203200  0.016170
GW 339    1  0.000000 -0.203200  0.000000  0.000000 -0.203200  0.101600  0.016170
GW 340    1  0.000000 -0.203200  0.101600  0.000000 -0.203200  0.203200  0.016170
GW 341    1  0.101600 -0.203200  0.000000  0.101600 -0.203200  0.101600  0.016170
GW 342    1  0.101600 -0.203200  0.101600  0.101600 -0.203200  0.203200  0.016170
GW 343    1  0.203200 -0.203200  0.000000  0.203200 -0.203200  0.101600  0.016170
GW 344    1  0.203200 -0.203200  0.101600  0.203200 -0.203200  0.203200  0.016170
GW 345    1 -0.203200 -0.203200  0.000000 -0.101600 -0.203200  0.000000  0.016170
GW 346    1 -0.101600 -0.203200  0.000000  0.000000 -0.203200  0.000000  0.016170
GW 347    1  0.000000 -0.203200  0.000000  0.101600 -0.203200  0.000000  0.016170
GW 348    1  0.101600 -0.203200  0.000000  0.203200 -0.203200  0.000000  0.016170
GW 349    1 -0.203200 -0.203200  0.101600 -0.101600 -0.203200  0.101600  0.016170
GW 350    1 -0.101600 -0.203200  0.101600  0.000000 -0.203200  0.101600  0.016170
GW 351    1  0.000000 -0.203200  0.101600  0.101600 -0.203200  0.101600  0.016170
GW 352    1  0.101600 -0.203200  0.101600  0.203200 -0.203200  0.101600  0.016170
GW 353    1 -0.203200 -0.203200  0.203200 -0.101600 -0.203200  0.203200  0.016170
GW 354    1 -0.101600 -0.203200  0.203200  0.000000 -0.203200  0.203200  0.016170
GW 355    1  0.000000 -0.203200  0.203200  0.101600 -0.203200  0.203200  0.016170
GW 356    1  0.101600 -0.203200  0.203200  0.203200 -0.203200  0.203200  0.016170
GW 357    1 -0.203200  0.101600  0.000000 -0.203200  0.101600  0.101600  0.016170
GW 358    1 -0.203200  0.101600  0.101600 -0.203200  0.101600  0.203200  0.016170
GW 359    1 -0.203200  0.000000  0.000000 -0.203200  0.000000  0.101600  0.016170
GW 360    1 -0.203200  0.000000  0.101600 -0.203200  0.000000  0.203200  0.016170
GW 361    1 -0.203200 -0.101600  0.000000 -0.203200 -0.101600  0.101600  0.016170
GW 362    1 -0.203200 -0.101600  0.101600 -0.203200 -0.101600  0.203200  0.016170
GW 363    1 -0.203200 -0.203200  0.000000 -0.203200 -0.203200  0.101600  0.016170
GW 364    1 -0.203200 -0.203200  0.101600 -0.203200 -0.203200  0.203200  0.016170
GW 365    1 -0.203200  0.203200  0.000000 -0.203200  0.101600  0.000000  0.016170